*Heading
** Job name: cube_compression2 Model name: cube_compression2
** Generated by: Abaqus/CAE Unofficial Packaging Version
*Preprint, echo=NO, model=NO, history=NO, contact=NO
**
** PARTS
**
*Part, name=PART-1
*Node
      1,           1.,           1.,           1.
      2,           1.,         0.75,           1.
      3,           1.,          0.5,           1.
      4,           1.,         0.25,           1.
      5,           1.,           0.,           1.
      6,           1.,           1.,         0.75
      7,           1.,         0.75,         0.75
      8,           1.,          0.5,         0.75
      9,           1.,         0.25,         0.75
     10,           1.,           0.,         0.75
     11,           1.,           1.,          0.5
     12,           1.,         0.75,          0.5
     13,           1.,          0.5,          0.5
     14,           1.,         0.25,          0.5
     15,           1.,           0.,          0.5
     16,           1.,           1.,         0.25
     17,           1.,         0.75,         0.25
     18,           1.,          0.5,         0.25
     19,           1.,         0.25,         0.25
     20,           1.,           0.,         0.25
** ... 105 like lines cut
*Element, type=C3D8R
 1,  26,  27,  32,  31,   1,   2,   7,   6
 2,  27,  28,  33,  32,   2,   3,   8,   7
 3,  28,  29,  34,  33,   3,   4,   9,   8
 4,  29,  30,  35,  34,   4,   5,  10,   9
 5,  31,  32,  37,  36,   6,   7,  12,  11
 6,  32,  33,  38,  37,   7,   8,  13,  12
 7,  33,  34,  39,  38,   8,   9,  14,  13
 8,  34,  35,  40,  39,   9,  10,  15,  14
 9,  36,  37,  42,  41,  11,  12,  17,  16
10,  37,  38,  43,  42,  12,  13,  18,  17
11,  38,  39,  44,  43,  13,  14,  19,  18
12,  39,  40,  45,  44,  14,  15,  20,  19
13,  41,  42,  47,  46,  16,  17,  22,  21
14,  42,  43,  48,  47,  17,  18,  23,  22
15,  43,  44,  49,  48,  18,  19,  24,  23
16,  44,  45,  50,  49,  19,  20,  25,  24
17,  51,  52,  57,  56,  26,  27,  32,  31
18,  52,  53,  58,  57,  27,  28,  33,  32
19,  53,  54,  59,  58,  28,  29,  34,  33
20,  54,  55,  60,  59,  29,  30,  35,  34
** ... 44 like lines cut
*Elset, elset=ELEMENTO, generate
  1,  64,   1
*Orientation, name=Ori-1
          1.,           0.,           0.,           0.,           1.,           0.
3, 0.
** Section: Section-1-ELEMENTO
*Solid Section, elset=ELEMENTO, orientation=Ori-1, material=ORTHO
1.,
*End Part
**  
**
** ASSEMBLY
**
*Assembly, name=Assembly
**  
*Instance, name=PART-1-1, part=PART-1
*End Instance
**  
*Nset, nset=ALL, instance=PART-1-1, generate
   1,  125,    1
*Nset, nset=DOWN, instance=PART-1-1, generate
   5,  125,    5
*Nset, nset=LEFT, instance=PART-1-1, generate
 101,  125,    1
*Nset, nset=RIGHT, instance=PART-1-1, generate
  1,  25,   1
*Nset, nset=UP, instance=PART-1-1, generate
   1,  121,    5
*End Assembly
*Amplitude, name=AMP-1, definition=SMOOTH STEP
             0.,              0.,           1e-05,              1.
** 
** MATERIALS
** 
**      **********************
** 
**      COMMENTS FROM *DEPVAR
**      =====================
** 
**      ***
*Material, name=ORTHO
*Density
 1.5e-06,
*Depvar, delete=20
     24,
*User Material, constants=20
**    E1       E22       E33      nu12       nu13      nu23       G12       G13
     116.6,    7.7,      7.7,      0.3,     0.3,       0.47,      6.47,     6.47
**   G23       XT         XC        YT        YC        SL      alpha0      G1+
      3.5,     2.354,    1.102,    0.0343,   0.184,    0.0827,    53.,      0.1
**   G1-       G2+       G2-        G6
     0.1,    0.0003,   0.0003,   0.0008
**
** ----------------------------------------------------------------
** 
** STEP: Step-1
** 
*Step, name=Step-1, nlgeom=YES
*Dynamic, Explicit
, 30.
*Bulk Viscosity
0.06, 1.2
** 
** BOUNDARY CONDITIONS
** 
** Name: Disp-BC-1 Type: Displacement/Rotation
*Boundary
DOWN, 2, 2
** Name: Vel-BC-1 Type: Velocity/Angular velocity
*Boundary, amplitude=AMP-1, type=VELOCITY
UP, 2, 2, -0.001
** 
** OUTPUT REQUESTS
** 
*Restart, write, number interval=1, time marks=NO
** 
** FIELD OUTPUT: F-Output-2
** 
*Output, field, variable=PRESELECT, number interval=100
** 
** HISTORY OUTPUT: H-Output-1
** 
*Output, history, variable=PRESELECT
*End Step
